   ---   42   cards of disk file read into card cache cells  1   onward.
 <===> Done with  "/"-card sorting by data class.    Remember that the source file appears different from interpreted input data.
Alternative Transients Program (ATP),  GNU Linux or DOS.  All rights reserved by Can/Am user group of Portland, Oregon, USA.
 Date (dd-mth-yy) and time of day (hh.mm.ss) = 27-Jul-23  20:37:07   Name of disk plot file is  a.pl4
Consult the 860-page ATP Rule Book of the Can/Am EMTP User Group in Portland,  Oregon, USA.  Source code date is 22 January 2007.
Total size of LABCOM tables = 10913313 INTEGER words.  31 VARDIM  List Sizes follow:  6002  10K  192K  900  420K  1200  15K
  120K  2250  3800  720  2K  72800  510  90K  800  90  254  120K  100K  3K  15K  192K  120  45K  260K  600  210K  600  19  200
--------------------------------------------------+--------------------------------------------------------------------------------
Descriptive interpretation of input data cards.   |  Input data card images are shown below, all 80 columns, character by character
                                                  0         1         2         3         4         5         6         7         8
                                                  012345678901234567890123456789012345678901234567890123456789012345678901234567890
--------------------------------------------------+--------------------------------------------------------------------------------
Comment card.   NUMDCD = 1.                       |C data:A.ATP
Marker card preceding new EMTP data case.         |BEGIN NEW DATA CASE
Comment card.   NUMDCD = 3.                       |C --------------------------------------------------------
Comment card.   NUMDCD = 4.                       |C Gerado por ATC - UTFPR
Comment card.   NUMDCD = 5.                       |C Gerado por Paula Bordin do Prado - Estudante de Engenharia Elétrica.
Comment card.   NUMDCD = 6.                       |C TrabalHo de Conclusão de Curso - 2017.
Comment card.   NUMDCD = 7.                       |C Escrito em MatLab por Paula Bordin do Prado - 2016/2017.
Comment card.   NUMDCD = 8.                       |C --------------------------------------------------------
Comment card.   NUMDCD = 9.                       |C  dT  >< Tmax >< Xopt >< Copt >
Misc. data.     1.000E-05   2.000E-01   6.000E+01 |   1.E-5      .2     60.     60.
Misc. data.     50    1  1  1  1  0  0  1  0  0   |      50       1       1       1       1       0       0       1       0
Comment card.   NUMDCD = 12.                      |C        1         2         3         4         5         6         7         8
Comment card.   NUMDCD = 13.                      |C 345678901234567890123456789012345678901234567890123456789012345678901234567890
Comment card.   NUMDCD = 14.                      |C < n 1>< n 2><ref1><ref2>< R  >< L  >< C  >
Comment card.   NUMDCD = 15.                      |C < n 1>< n 2><ref1><ref2>< R  >< A  >< B  ><Leng><><>0
Sat. Xformer.    0.000E+00  0.000E+00  1.000E+06  |  TRANSFORMER                         TX0001  1.E6                             0
    Breakpoint.      1.76750E-02    5.77130E-02   |        0.017675        0.057713
    Breakpoint.      1.75500E-01    7.50264E-01   |        0.175500        0.750264
    Breakpoint.      2.35875E+02    1.12539E+00   |      235.875000        1.125395
Special termination-of-points card.               |            9999
  Winding 1.   5.0000E-01  0.0000E+00  1.2000E+03 | 1      XX0002            .50000    0.1200.0
  Winding 2.   1.0000E-08  2.6526E-08  5.0000E+00 | 2XX0022XX0016             1.E-8 1.E-55.0000
Comment card.   NUMDCD = 23.                      |C prim
Series R-L-C.   7.534E-01  9.093E-03  0.000E+00   |  XX0018XX0016            .753403.4281                                         1
Series R-L-C.   1.000E-03  0.000E+00  0.000E+00   |  XX0008                    .001                                               0
Comment card.   NUMDCD = 26.                      |C sec
Series R-L-C.   3.530E+00  0.000E+00  0.000E+00   |  XX0002                  3.5300    0.                                         1
Blank card ending branches.  IBR, NTOT = 7  7     |BLANK BRANCH
Comment card.   NUMDCD = 29.                      |C < n 1>< n 2>< Tclose ><Top/Tde ><   Ie   ><Vf/CLOP ><  type  >
Switch.   2.92E-02  1.00E+00  0.00E+00  0.00E+00  |  XX0022XX0008  .0291681        1.                                             0
Blank card ending switches.   KSWTCH = 1.         |BLANK SWITCH
Comment card.   NUMDCD = 32.                      |C < n 1><>< Ampl.  >< Freq.  ><Phase/T0><   Isc   ><   T1   >< TSTART >< TSTOP
Source.   1.13E+05  6.00E+01  0.00E+00 -1.00E+00  |14XX0018 0112676.528       60.                                     -1.        1.
Source.  -1.41E+00  6.00E+01  0.00E+00 -1.00E+00  |14XX0022-1-1.4142       60.                                     -1.        1.
Blank card ends electric sources.  KCONST = 2     |BLANK SOURCE

List of input elements that are connected to each node.   Only the physical connections of multi-phase lines are shown (capacitive
and inductive coupling are ignored).   Repeated entries indicate parallel connections.   Switches are included,  although sources
(including rotating machinery) are omitted -- except that U.M. usage produces extra,  internally-defined nodes  "UMXXXX".
--------------+------------------------------
From bus name |  Names of all adjacent busses.
--------------+------------------------------
       TX0001 |TERRA *XX0002*XX0002*XX0002*
       XX0002 |TERRA *TX0001*TX0001*TX0001*
       XX0022 |XX0016*XX0008*
       XX0016 |XX0022*XX0018*
       XX0018 |XX0016*
       XX0008 |TERRA *XX0022*
       TERRA  |TX0001*XX0002*XX0008*
--------------+------------------------------
Nonlinear resistances, time-varying resistances, and type-94 MODELS components are ignored during the phasor solution. Nonlinear
inductors are linearized.

Sinusoidal steady-state phasor solution, branch by branch.   All flows are away from a bus,  and the real part,  magnitude,  or  "P"
is printed above the imaginary part,  the angle,  or  "Q".   The first solution frequency  =  6.00000000E+01  Hertz.
  Bus K                        Phasor  node  voltage              Phasor  branch  current               Power flow       Power loss
             Bus M         Rectangular            Polar          Rectangular            Polar            P  and  Q        P  and  Q

 TERRA                            0.0              0.0      .00589247623934  .00589247623935                  0.0  .86803190578E-5
                                  0.0              0.0      .10423486543E-7        0.0001014                  0.0              0.0

            TX0001    -.0029462381197  .00294623811967      -.0058924762393  .00589247623935      .86803190578E-5
                      -.5211743272E-8     -179.9998986      -.1042348654E-7     -179.9998986                  0.0

 TX0001               -.0029462381197  .00294623811967      -.2374667924E-7  .23746679245E-7       .349816858E-10  .28195238757E-9
                      -.5211743272E-8     -179.9998986      -.420066508E-13     -179.9998986      -.652284803E-26        0.0000000

            XX0002    .02080044112487   .0208004411249      .23746679245E-7  .23746679245E-7      .24697070177E-9
                      .36794907502E-7        0.0001014      .4200665077E-13        0.0001014      .6522863036E-26

 XX0022               112675.46244917  112675.46255347      -1.414199996442  1.4141999964445      -79672.81929072  .69973653353E-4
                      -4.848034561251       -0.0024652      -.2736385965E-5     -179.9998891      3.5822070066679        0.0000100

            XX0016    112675.46254813  112675.46265243      1.4141999964418  1.4141999964445      79672.819360691
                      -4.848020419076       -0.0024652      .27363859652E-5        0.0001109      -3.582197006871

 TX0001               -.0029462381197  .00294623811967      .00589249998517  .00589249998519      -.8680354038E-5  -.6996365355E-4
                      -.5211743272E-8     -179.9998986      .11401608185E-7        0.0001109      .1440827755E-11        0.0000000

            XX0002    .02080044112487   .0208004411249      -.0058924999852  .00589249998519      -.6128329951E-4
                      .36794907502E-7        0.0001014      -.1140160819E-7     -179.9998891      .1017224393E-10

 XX0018                    112676.528       112676.528      1.4141999972681  1.4141999972693       79673.57279489  .75338554687859
                                  0.0              0.0      .18694471625E-5        0.0000757      -.1053214077736        3.4280342

            XX0016    112675.46254813  112675.46265243      -1.414199997268  1.4141999972693      -79672.81940934
                      -4.848020419076       -0.0024652      -.1869447162E-5     -179.9999243      3.5333556435773

 XX0002               .02080044112487   .0208004411249      .00589247623934  .00589247623935      .61283052548E-4  .61283052548E-4
                      .36794907502E-7        0.0001014      .10423486545E-7        0.0001014      -.776870219E-26        0.0000000

            TERRA                 0.0              0.0      -.0058924762393  .00589247623935                  0.0
                                  0.0              0.0      -.1042348654E-7     -179.9998986                  0.0
     Total network loss  P-loss  by summing injections =   7.534489244026E-01

Output for steady-state phasor switch currents.
      Node-K    Node-M            I-real            I-imag            I-magn          Degrees        Power            Reactive
      XX0022    XX0008            Open              Open              Open             Open          Open              Open

Solution at nodes with known voltage.   Nodes that are shorted together by switches are shown as a group of names, with the printed
result applying to the composite group.   The entry "MVA" is  SQRT( P**2 + Q**2 )  in units of power,  while  "P.F."  is the
associated power factor.
              Node                Source  node  voltage             Injected  source  current              Injected  source  power
              name         Rectangular            Polar          Rectangular            Polar            P  and  Q    MVA and P.F.

              XX0018       112676.528       112676.528      1.4141999972681  1.4141999972694      79673.572794891  79673.572794961
                                  0.0              0.0      .18694485995E-5        0.0000757      -.1053214887319        1.0000000

Card of names for time-step loop output.          |  XX0002
Blank card ending requests for output variables.  |BLANK OUTPUT

Column headings for the  3   EMTP output variables follow.  These are divided among the 5 possible classes as follows ....
  First  1     output variables are electric-network voltage differences (upper voltage minus lower voltage);
  Next   2     output variables are branch currents (flowing from the upper node to the lower node);
   Step      Time      XX0002     XX0018     XX0002
                                  XX0016     TERRA
      0       0.0  .020800441     1.4142 .005892476
     50     .5E-3  .020419252 1.38915063 .005784491
    100     .1E-2  .019314708 1.31488991 .005471589
    150     .0015   .01752594 1.19404855 .004964855
    200      .002  .015116313 1.03090743 .004282242
    250     .0025  .012171192 .831245904  .00344793
    300      .003  .008794909 .602137074 .002491476
    350     .0035  .005107069 .351697238 .001446762
    400      .004  .001238316 .088798353 .350798E-3
    450     .0045   -.0026743 -.17724626 -.75759E-3
    500      .005  -.00649216 -.43701183 -.00183914
    550     .0055  -.01008003 -.68129605 -.00285553
    600      .006  -.01331081 -.90144501 -.00377077
    650     .0065  -.01607003 -1.0896598 -.00455242
    700      .007  -.01825996 -1.2392729 -.00517279
    750     .0075  -.01980301 -1.3449841 -.00560992
    800      .008  -.02064452 -1.4030486  -.0058483
    850     .0085  -.02075468 -1.4114094 -.00587951
    900      .009  -.02012959 -1.3697703 -.00570243
    950     .0095  -.01879139 -1.2796064 -.00532334
   1000       .01  -.01678748 -1.1441118 -.00475566
   1050     .0105  -.01418887 -.96808652 -.00401951
   1100      .011   -.0110876 -.75776625 -.00314096
   1150     .0115  -.00759354 -.52060174 -.00215114
   1200      .012  -.00383046 -.26499466 -.00108512
   1250     .0125   .68316E-4 -.1849E-12  .19353E-4
   1300      .013  .003964682 .264994655 .001123139
   1350     .0135  .007720605 .520601742  .00218714
   1400      .014  .011203029 .757766253 .003173663
   1450     .0145  .014288588 .968086517 .004047759
   1500      .015  .016867975 1.14411183 .004778463
   1550     .0155  .018849813 1.27960642  .00533989
   1600      .016  .020163895 1.36977031 .005712151
   1650     .0165  .020763668  1.4114094 .005882059
   1700      .017  .020627886 1.40304861 .005843594
   1750     .0175  .019761358 1.34498413 .005598118
   1800      .018  .018194782 1.23927291 .005154329
   1850     .0185  .015983655 1.08965983 .004527948
   1900      .019  .013206306 .901445006 .003741163
   1950     .0195  .009961126 .681296046 .002821849
   2000       .02  .006363075 .437011833 .001802571
   2050     .0205  .002539616 .177246259 .719438E-3
   2100      .021   -.0013738 -.08879835 -.38918E-3
   2150     .0215  -.00523854 -.35169724 -.00148401
   2200      .022   -.0089177 -.60213707 -.00252626
   2250     .0225  -.01228094  -.8312459 -.00347902
   2300      .023  -.01520911 -1.0309074 -.00430853
   2350     .0235  -.01759848 -1.1940486  -.0049854
   2400      .024  -.01936441 -1.3148899 -.00548567
   2450     .0245  -.02044433 -1.3891506  -.0057916
   2500      .025      -.0208    -1.4142 -.00589235
   2550     .0255  -.02041881 -1.3891506 -.00578437
   2600      .026  -.01931427 -1.3148899 -.00547146
   2650     .0265   -.0175255 -1.1940486 -.00496473
   2700      .027  -.01511588 -1.0309074 -.00428212
   2750     .0275  -.01217075  -.8312459 -.00344781
   2800      .028  -.00879447 -.60213707 -.00249135
   2850     .0285  -.00510663 -.35169724 -.00144664
   2900      .029  -.00123788 -.08879835 -.35067E-3
 ***                                                             Close switch  "XX0022"  to  "XX0008"  after  2.91700000E-02  sec.
   2950     .0295  3.77523772 256.705067 1.06947244
   3000       .03  23.1139868 1572.03457 6.54787162
   3050     .0305  57.6010791 3918.41879 16.3175861
   3100      .031  105.360565 7168.57493 29.8471856
   3150     .0315   164.07956 11164.9981 46.4814617
   3200      .032   231.06574 15725.4682 65.4577169
   3250     .0325  303.366235 20649.4351 85.9394433
   3300      .033  377.863474 25725.0561 107.043477
   3350     .0335  279.895952 30736.6456 79.2906381
   3400      .034  118.087174 35472.2948 33.4524571
   3450     .0345  68.3268228  39731.182 19.3560405
   3500      .035  48.6513118 43330.7296 13.7822413
   3550     .0355  36.1638404 46113.0179  10.244714
   3600      .036  24.6653711 47950.3177 6.98735724
   3650     .0365  12.7007098 48749.5625  3.5979348
   3700      .037  .178060653 48455.5964 .050442111
   3750     .0375   -12.59527 47053.0821 -3.5680652
   3800      .038   -25.19652 44566.9993 -7.1378242
   3850     .0385  -37.179328 41061.7175 -10.532387
   3900      .039  -48.111211 36638.6749 -13.629238
   3950     .0395  -57.594976 31432.7458 -16.315857
   4000       .04  -65.284494 25607.4248 -18.494191
   4050     .0405  -70.897432 19348.9994 -20.084258
   4100      .041  -74.225373 12859.9157 -21.027018
   4150     .0415  -75.141223 6351.57344 -21.286465
   4200      .042  -73.603705 36.8057877 -20.850908
   4250     .0425  -87.063114  -5877.691 -24.663772
   4300      .043  -165.26758 -11198.695 -46.818011
   4350     .0435  -232.16705 -15753.356 -65.769703
   4400      .044  -285.61495 -19395.342 -80.910751
   4450     .0445  -323.93216 -22010.045 -91.765483
   4500      .045  -345.96187  -23518.66 -98.006196
   4550     .0455  -351.10372 -23881.007 -99.462812
   4600      .046  -339.41277 -23096.974 -96.150926
   4650     .0465  -311.45772 -21206.541 -88.231648
   4700      .047  -268.40304 -18288.388 -76.034856
   4750     .0475  -72.402482 -14457.143 -20.510618
   4800      .048  18.5275285 -9859.3166 5.24859165
   4850     .0485  48.9545291    -4668.1 13.8681386
   4900      .049  60.6926553 922.695082 17.1933868
   4950     .0495  99.2303357 6705.49606 28.1105767
   5000       .05   183.89673 12466.2994  52.095391
   5050     .0505  265.070847 17992.2632 75.0908914
   5100      .051    339.7521 23079.2246 96.2470538
   5150     .0515  405.174997  27538.914 114.780452
   5200      .052  458.874972 31205.6107  129.99291
   5250     .0525  498.902085 33942.0006 141.332035
   5300      .053  523.700573 35644.0277 148.357103
   5350     .0535  204.203141  36244.605 57.8479154
   5400      .054   52.191046 35715.9376 14.7849989
   5450     .0545  .046533185 34070.4193 .013182205
   5500      .055  -23.473351 31360.2989 -6.6496745
   5550     .0555   -38.13928 27675.7951 -10.804329
   5600      .056  -49.238491 23141.8829 -13.948581
   5650     .0565  -58.012989 17913.8545 -16.434274
   5700      .057   -64.61114 12171.8081 -18.303439
   5750     .0575  -68.926939 6114.25847 -19.526045
   5800      .058  -70.841856 -48.903205 -20.068514
   5850     .0585  -90.388328  -6103.853 -25.605759
   5900      .059  -174.70197 -11840.403 -49.490643
   5950     .0595  -251.36737 -17059.477 -71.208886
   6000       .06  -317.72786  -21580.17 -90.007893
   6050     .0605  -371.48943 -25246.156  -105.2378
   6100      .061  -410.77438 -27931.233 -116.36668
   6150     .0615  -434.29352 -29543.796 -123.02933
   6200      .062  -441.24446 -30030.094 -124.99843
   6250     .0625  -361.03233 -29376.138 -102.27545
   6300      .063  -86.104581 -27608.256 -24.392233
   6350     .0635  .076900286  -24792.03 .021784784
   6400      .064   32.159778 -21030.057 9.11041871
   6450     .0645  47.8296507 -16458.339 13.5494761
   6500      .065  57.4772433 -11241.461 16.2825052
   6550     .0655  63.8475723 -5566.7565  18.087131
   6600      .066  67.5860581 362.324288 19.1461921
   6650     .0665  93.7624479 6333.41678    26.5616
   6700      .067  178.997813 12132.7477 50.7075959
   6750     .0675  258.615648 17552.7297 73.2622232
   6800      .068  329.764965 22399.3067 93.4178371
   6850     .0685   389.89602 26498.8192  110.45213
   6900      .069  436.818658 29704.1527 123.744662
   6950     .0695  468.906442 31899.9461 132.834686
   7000       .07  484.964885 33006.6754  137.38382
   7050     .0705  258.787401 32983.4837 73.3108784
   7100      .071  62.3753626 31829.6481 17.6700744
   7150     .0715  -2.0511807 29584.4635 -.58107102
   7200      .072  -28.584382  26325.975 -8.0975586
   7250     .0725  -43.454117 22168.1992 -12.309948
   7300      .073  -53.792981 17257.0719 -15.238805
   7350     .0735  -61.393617 11765.2726 -17.391959
   7400      .074  -66.594979 5886.10508 -18.865433
   7450     .0745  -69.383855 -173.35392 -19.655483
   7500      .075  -91.795523 -6199.5912 -26.004397
   7550     .0755  -176.75658 -11980.209 -50.072685
   7600      .076  -255.07086 -17311.476 -72.258035
   7650     .0765  -323.97914 -22005.544 -91.778793
   7700      .077  -381.05477 -25897.095 -107.94753
   7750     .0775  -424.25715 -28849.202 -120.18616
   7800      .078  -452.13371  -30758.18 -128.08321
   7850     .0785  -463.67592 -31557.261 -131.35295
   7900      .079  -301.24624 -31218.969 -85.338877
   7950     .0795  -71.779111 -29756.137 -20.334026
   8000       .08  1.79402172 -27221.305 .508221451
   8050     .0805  30.6303516 -23704.975 8.67715342
   8100      .081  45.7813073 -19332.405 12.9692089
   8150     .0815  55.7525481 -14259.164  15.793923
   8200      .082  62.7403343 -8665.6159 17.7734658
   8250     .0825  67.2161023 -2750.5307 19.0413888
   8300      .083  69.2242025 3275.95532 19.6102557
   8350     .0835  135.896143 9199.77681  38.497491
   8400      .084   218.33893 14810.5203  61.852388
   8450     .0845   293.20951 19908.9005 83.0621841
   8500      .085  357.848128 24313.8047 101.373407
   8550     .0855  409.956025 27868.7072 116.134851
   8600      .086  447.653768 30447.2134 126.814099
   8650     .0865  469.656789  31957.537 133.047249
   8700      .087  475.149173 32345.7504 134.603165
   8750     .0875  141.879984 31597.7399 40.1926299
   8800      .088   23.570331 29739.6205  6.6771476
   8850     .0885  -18.426216 26836.8019 -5.2198913
   8900      .089  -38.023052 22991.7473 -10.771403
   8950     .0895  -50.144762 18340.3225 -14.205315
   9000       .09  -58.765137 13046.9755 -16.647348
   9050     .0905  -64.820059 7298.90885 -18.362623
   9100      .091  -68.444862 1299.44686 -19.389479
   9150     .0915  -69.609662  -4739.168 -19.719451
   9200      .092    -156.523 -10603.283 -44.340794
   9250     .0925  -237.06508 -16085.416 -67.157247
   9300      .093  -309.10108 -20991.619 -87.564046
   9350     .0935  -370.08279 -25148.334 -104.83932
   9400      .094  -417.83635 -28408.546 -118.36724
   9450     .0945  -450.69219 -30656.988 -127.67484
   9500      .095  -467.50172 -31814.226 -132.43675
   9550     .0955  -400.06768 -31839.476 -113.33362
   9600      .096  -102.59186 -30732.103  -29.06285
   9650     .0965  -9.6572792 -28531.509 -2.7357731
   9700      .097  24.9280867 -25315.803 7.06178094
   9750     .0975  42.0823643 -21199.072 11.9213497
   9800      .098  53.0791496 -16327.322 15.0365863
   9850     .0985  60.8785609 -10873.301 17.2460512
   9900      .099  66.1487133 -5030.3759 18.7390123
   9950     .0995  68.9692153 994.312966 19.5380213
  10000       0.1  103.373659 6987.19188 29.2843226
  10050     .1005   187.85877 12735.8048 53.2177818
  10100      .101  265.716454 18036.3678 75.2737831
  10150     .1015  334.186686 22700.9788 94.6704494
  10200      .102  390.842073 26564.2699 110.720134
  10250     .1025  433.641915 29489.2654 122.844735
  10300      .103  461.131083 31372.2338 130.632035
  10350     .1035  472.302231 32146.3626 133.796666
  10400      .104  240.492369 31784.1416 68.1281497
  10450     .1045  54.4603503  30298.354 15.4278613
  10500      .105   -6.859614 27741.4933 -1.9432334
  10550     .1055   -32.23404 24204.0274 -9.1314561
  10600      .106  -46.401867 19811.1802 -13.145005
  10650     .1065  -56.089095 14718.4855 -15.889262
  10700      .107  -62.990245 9106.27383 -17.844262
  10750     .1075  -67.435289 3173.28365 -19.103481
  10800      .108  -69.428684 -2870.3797 -19.668183
  10850     .1085   -130.1774 -8810.6818 -36.877451
  10900      .109  -212.85532 -14437.237 -60.298957
  10950     .1095  -287.95147 -19550.786 -81.572654
  11000       .11  -352.80649 -23970.242 -99.945182
  11050     .1105  -405.12378 -27539.106 -114.76594
  11100      .111  -443.01891 -30131.005 -125.50111
  11150     .1115  -465.21301 -31654.179 -131.78839
  11200      .112  -470.88871 -32054.719 -133.39623
  11250     .1125  -159.32104 -31318.527  -45.13344
  11300      .113  -28.581633  -29471.75   -8.09678
  11350     .1135  16.9229958 -26579.815  4.7940498
  11400      .114  37.5125187 -22745.202 10.6267758
  11450     .1145  49.9176158 -18103.795 14.1409677
  11500      .115  58.6212666 -12820.059 16.6065911
  11550     .1155  64.7029092 -7081.2122  18.329436
  11600      .116   68.338358 -1090.5957 19.3593082
  11650     .1165  73.2701185 4939.53308 20.7564075
  11700      .117  159.347804 10795.5059 45.1410209
  11750     .1175  239.773725  16269.828 67.9245679
  11800      .118  311.698287 21168.5371 88.2997979
  11850     .1185  372.573079 25318.0631 105.544782
  11900      .119  420.221591 28571.3778 119.042944
  11950     .1195   452.98152 30813.2027 128.323377
  12000       .12  469.696655 31964.0929 133.058542
  12050     .1205  378.409518 31983.2538 107.198164
  12100      .121   96.437366 30870.0425 27.3193671
  12150     .1215  7.87561894 28663.8439 2.23105353
  12200      .122  -25.475046 25442.7609  -7.216727
  12250     .1225  -42.279417 21320.8717 -11.977172
  12300      .123  -53.175813  16444.173  -15.06397
  12350     .1235  -60.945252 10985.4036 -17.264944
  12400      .124  -66.205352 5137.92382 -18.755057
  12450     .1245  -69.021483 -891.13492 -19.552828
  12500      .125  -101.91856 -6888.2063 -28.872114
  12550     .1255  -186.46349 -12640.842 -52.822519
  12600      .126  -264.37856 -17945.264 -74.894777
  12650     .1265  -332.90385 -22613.577 -94.307039
  12700      .127  -389.61205 -26480.419 -110.37169
  12750     .1275  -432.46256 -29408.822 -122.51064
  12800      .128  -460.00034  -31295.06 -130.31171
  12850     .1285  -471.21812 -32072.324 -133.48955
  12900      .129  -247.38902 -31713.111 -70.081876
  12950     .1295  -56.428661 -30230.208 -15.985456
  13000       .13  6.28169844 -27676.116 1.77951797
  13050     .1305  32.0490454 -24141.307 9.07904969
  13100      .131  46.3285425 -19751.008  13.124233
  13150     .1315  56.0481139 -14660.758 15.8776527
  13200      .132  62.9592076  -9050.892 17.8354696
  13250     .1325  67.4078466 -3120.1521 19.0957072
  13300      .133  69.4030147 2921.35242 19.6609107
  13350     .1335  130.896135 8859.58321 37.0810582
  13400      .134  213.544499 14484.1508 60.4941923
  13450     .1345  288.612302 19595.7934 81.7598588
  13500      .135  353.440127  24013.421 100.124682
  13550     .1355  405.731319 27580.5298 114.938051
  13600      .136  443.601423 30170.7465 125.666125
  13650     .1365  465.771506 31692.3046 131.946602
  13700      .137  471.424163  32091.296 133.547922
  13750     .1375  156.959421 31353.6185 44.4644253
  13800      .138  27.9039899 29505.4161 7.90481301
  13850     .1385  -17.125403 26612.1131 -4.8513889
  13900      .139  -37.580484  22776.188 -10.646029
  13950     .1395  -49.947235 18133.5218 -14.149358
  14000       .14   -58.63965 12848.5776 -16.611799
  14050     .1405  -64.717718 7108.57225 -18.333631
  14100      .141  -68.351768 1116.84406 -19.363107
  14150     .1415  -72.899896 -4914.3512 -20.651529
  14200      .142   -158.9928 -10771.347 -45.040453
  14250     .1425  -239.43332 -16246.651 -67.828136
  14300      .143  -311.37189 -21146.302 -88.207333
  14350     .1435  -372.26011 -25296.732 -105.45612
  14400      .144  -419.92184 -28550.913 -118.95803
  14450     .1445  -452.69381  -30793.57 -128.24187
  14500      .145  -469.42081 -31945.258  -132.9804
  14550     .1455  -381.14468 -31965.184   -107.973
  14600      .146  -97.214573 -30852.706 -27.539539
  14650     .1465   -8.100584 -28647.212  -2.294783
  14700      .147  25.4060094 -25426.805 7.19716981
  14750     .1475   42.254568 -21305.564 11.9701326
  14800      .148  53.1636413 -16429.487 15.0605216
  14850     .1485  60.9368639 -10971.315 17.2625677
  14900      .149   66.198232 -5124.4072 18.7530402
  14950     .1495  69.0149134  904.10233  19.550967
  15000       .15  102.101443 6900.64683 28.9239216
  15050     .1505  186.638853 12652.7766 52.8721963
  15100      .151  264.546711 17956.7135  74.942411
  15150     .1515  333.065077 22624.5613 94.3527131
  15200      .152  389.766641 26490.9578 110.415479
  15250     .1525  432.610784 29418.9324  122.55263
  15300      .153  460.142453 31304.7588  130.35197
  15350     .1535  471.354375 32081.6295 133.528152
  15400      .154   246.48571 31722.0378 69.8259801
  15450     .1545  56.1709813 30238.7727 15.9124593
  15500      .155  -6.3572353 27684.3327 -1.8009165
  15550     .1555  -32.073114 24149.1893 -9.0858681
  15600      .156  -46.337989 19758.5703 -13.126909
  15650     .1565  -56.053329 14668.0132  -15.87913
  15700      .157  -62.963127 9057.85238  -17.83658
  15750     .1575  -67.411301 3126.82967 -19.096686
  15800      .158  -69.406242 -2914.9462 -19.661825
  15850     .1585   -130.8058 -8853.4373 -37.055468
  15900      .159  -213.45788 -14478.255 -60.469655
  15950     .1595  -288.52925 -19590.137  -81.73633
  16000       .16  -353.36049 -24007.994 -100.10212
  16050     .1605  -405.65496 -27575.324 -114.91642
  16100      .161  -443.52821 -30165.752 -125.64539
  16150     .1615  -465.70131 -31687.513 -131.92672
  16200      .162  -471.35686 -32086.699 -133.52886
  16250     .1625  -157.25445 -31349.208 -44.548002
  16300      .163  -27.988654 -29501.185 -7.9287971
  16350     .1635  17.1001061 -26608.054 4.84422268
  16400      .164  37.5719816 -22772.294 10.6436209
  16450     .1645  49.9435238 -18129.786  14.148307
  16500      .165  58.6373431 -12844.993 16.6111454
  16550     .1655  64.7158575 -7105.1336 18.3331041
  16600      .166  68.3500825 -1113.5452 19.3626296
  16650     .1665  72.9464278 4917.51608 20.6647104
  16700      .167  159.037418 10774.3836 45.0530929
  16750     .1675  239.476103  16249.564 67.8402558
  16800      .168   311.41291 21149.0965 88.2189547
  16850     .1685  372.299451 25299.4126 105.467266
  16900      .169  419.959512 28553.4852   118.9687
  16950     .1695  452.729974 30796.0371 128.252117
  17000       .17  469.455481 31947.6249 132.990221
  17050     .1705  380.806171 31967.4548 107.877102
  17100      .171  97.1183736 30854.8851 27.5122871
  17150     .1715  8.07272759 28649.3023 2.28689167
  17200      .172  -25.414568 25428.8101 -7.1995944
  17250     .1725  -42.257658 21307.4877 -11.971008
  17300      .173  -53.165162 16431.3329 -15.060952
  17350     .1735  -60.937916 10973.0852 -17.262866
  17400      .174  -66.199126 5126.10597 -18.753294
  17450     .1745  -69.015739 -902.47259 -19.551201
  17500      .175  -102.07846 -6899.0833  -28.91741
  17550     .1755  -186.61681 -12651.277 -52.865953
  17600      .176  -264.52558 -17955.274 -74.936424
  17650     .1765  -333.04481 -22623.181 -94.346973
  17700      .177  -389.74721 -26489.633 -110.40998
  17750     .1775  -432.59216 -29417.662 -122.54735
  17800      .178  -460.12459  -31303.54 -130.34691
  17850     .1785  -471.33725  -32080.46  -133.5233
  17900      .179  -246.59924 -31720.916 -69.858141
  17950     .1795  -56.203366 -30237.696 -15.921634
  18000       .18  6.34774183   -27683.3 1.79822715
  18050     .1805  32.0700894 -24148.199 9.08501116
  18100      .181  46.3368015  -19757.62 13.1265727
  18150     .1815   56.052674 -14667.101 15.8789445
  18200      .182  62.9626342 -9056.9776 17.8364403
  18250     .1825  67.4108666 -3125.9904 19.0965628
  18300      .183  69.4058366 2915.75132 19.6617101
  18350     .1835  130.817156  8854.2097 37.0586845
  18400      .184  213.468767 14478.9957 60.4727385
  18450     .1845  288.539685 19590.8477 81.7392875
  18500      .185  353.370499 24008.6763 100.104957
  18550     .1855  405.664558  27575.978 114.919138
  18600      .186  443.537413 30166.3796 125.647992
  18650     .1865  465.710135 31688.1151 131.929217
  18700      .187  471.365323 32087.2767 133.531253
  18750     .1875  157.217369 31349.7625 44.5374983
  18800      .188  27.9780132 29501.7168 7.92578277
  18850     .1885  -17.103285 26608.5641 -4.8451233
  18900      .189   -37.57305 22772.7832 -10.643924
  18950     .1895   -49.94399 18130.2553 -14.148439
  19000       .19  -58.637633 12845.4438 -16.611228
  19050     .1905  -64.716091  7105.5658  -18.33317
  19100      .191  -68.350294 1113.95976  -19.36269
  19150     .1915   -72.94058 -4917.1183 -20.663054
  19200      .192  -159.03181 -10774.002 -45.051504
  19250     .1925  -239.47073 -16249.198 -67.838733
  19300      .193  -311.40775 -21148.745 -88.217494
  19350     .1935  -372.29451 -25299.076 -105.46587
  19400      .194  -419.95478 -28553.162 -118.96736
  19450     .1945  -452.72543 -30795.727 -128.25083
  19500      .195  -469.45112 -31947.327 -132.98899
  19550     .1955  -380.84871 -31967.169 -107.88915
  19600      .196  -97.130464 -30854.611 -27.515712
  19650     .1965  -8.0762286  -28649.04 -2.2878834
  19700      .197  25.4134927 -25428.558 7.19928971
  19750     .1975  42.2572695 -21307.246 11.9708979
  19800      .198  53.1649706 -16431.101 15.0608982
  19850     .1985  60.9377833 -10972.863 17.2628281
  19900      .199  66.1990138 -5125.8925 18.7532617
  19950     .1995  69.0156351 902.677414 19.5511714
  % % % % % %   Final time step,  PLTFIL  dumps plot data to ".PL4" disk file.
  Done dumping plot points to C-like disk file.
  20000       0.2  102.081348 6899.27981 28.9182288

Extrema of output variables follow.   Order and column positioning are the same as for the preceding time-step loop output.
Variable maxima :  527.519783 48779.9586 149.439032
Times of maxima :      .05313     .03662     .05313
Variable minima :  -471.58427 -32099.878 -133.59328
Times of minima :      .19525     .19526     .19525

Blank card terminating all plot cards.            |BLANK PLOT

Memory storage figures for the preceding, now-completed data case.  -------------------------------  Present   Program
A value of  "-9999"  indicates that no figure is available.         27-Jul-23  20:37:07              figure     limit  (name)
     Size List 1.   Number of electric network nodes.                                                    7      6000  (LBUS)
     Size List 2.   Number of electric network branches.                                                 7     10000  (LBRNCH)
     Size List 3.   Number of data values in R, L, C tables.                                             8    192000  (LDATA)
     Size List 4.   Number of electric network sources.                                                  2       900  (LEXCT)
     Size List 5.   Storage for [Y] and triangularized [Y].   No. times =   81     Factors =    17      35    420000  (LYMAT)
     Size List 6.   Number of entries in switch table.                  No. flops = 1                    1      1200  (LSWTCH)
     Size List 7.   Number of distinct ALPHANUMERIC data names plus program SPY variables.               3     15000  (LSIZE7)
     Size List 8.   History points of distributed lines.                                                 0    120000  (LPAST)
     Size List 9.   Number of nonlinear elements.                                                        1      2250  (LNONL)
     Size List 10.  Points of nonlinear characteristics.                                                 3      3800  (LCHAR)
     Size List 11.  Number of Type-59 S.M. outputs.                                                      0       720  (LSMOUT)
     Size List 12.  Total number of EMTP output variables.                                               3      2000  (LSIZ12)
     Size List 13.  Working space for batch/SPY plotting.                                            -9999     72800  (LSIZ13)
     Size List 14.  S.M./U.M. connections to TACS.                                                   -9999       510  (LBSTAC)
     Size List 15.  Character storage in bytes for MODELS.                                           -9999     90000  (LCTACS)
     Size List 16.  Total number of Type-59 S.M. masses.                                                 0       800  (LIMASS)
     Size List 17.  Number of Type-59 Synchronous machines.                                              0        90  (LSYN)
     Size List 18.  Branch and switch power/energy outputs.                                              0       254  (MAXPE)
     Size List 19.  Total floating-point TACS table space.                                              23    120000  (LTACST)
     Size List 20.  Non-copied recursive convolution data.                                               0    100000  (LFSEM)
     Size List 21.  Total modal/phase [T] matrix storage.                                                0      3000  (LFD)
     Size List 22.  Total recursive convolution history.                                                 0     15000  (LHIST)
     Size List 23.  Giant vectors for renumbering, phasors.                                             13    192000  (LSIZ23)
     Size List 24.  Peak phases of compensation for data.                                                0       120  (LCOMP)
     Size List 25.  Total table space for all U.M usage.                                             -9999     45000  (LSPCUM)
     Size List 26.  Square of max number of coupled phases.                                              4    260000  (LSIZ26)
     Size List 28.  MODELS.  Total work space is divided into INTEGER and REAL.  1st, REAL:          -9999    210000  (LRTACS)
                             Second  and last,  statistics for INTEGER work space.                       0         0  (LITACS)
     Size List 29.  RAM disk used by "TAPSAV" table saving (limit is "LABCOM" size LTLABL).          -9999       600  (LSIZ29)
     Size List 30.  Taku Noda frequency-dependent circuits.                                              0        19  (LSIZ30)
Timing figures characterizing central processor (CP) solution speed.  ----------------------------   CP sec  Wait sec  Real sec
     Data input time (through blank card ending branches) ....                                       0.000     0.000     0.000
     Node renumbering and phasor solution  ....                                                      0.000     0.000     0.000
     After phasor solution, but before time-step loop  ....                                          0.000     0.000     0.000
     Integration of equations (time-step loop)  ....                                                 0.000     0.000     0.000
     Plotting or STATISTICS termination overlays ....                                                0.000     0.000     0.000
                                                                                                    ---------------------------
                                                                                          Totals      0.000     0.000     0.000

